*Heading
** Job name: Job-2-Copy Model name: test_input_2-Copy
** Generated by: Abaqus/CAE Student Edition 6.13-2
*Preprint, echo=NO, model=NO, history=NO, contact=NO
**
** PARTS
**
*Part, name=PART-1
*Node
      1,          10.,          20.,           0.
      2,          10.,           0.,           0.
      3,          20.,           0.,           0.
      4,          20.,          20.,           0.
      5,           0.,          20.,           0.
      6,           0.,           0.,           0.
      7,          10.,          10.,           0.
      8,          20.,          10.,           0.
      9,           0.,          10.,           0.
*Element, type=S3
1, 1, 7, 8
2, 8, 4, 1
3, 7, 2, 3
4, 3, 8, 7
5, 2, 7, 9
6, 9, 6, 2
7, 7, 1, 5
8, 5, 9, 7
*Nset, nset=_PICKEDSET2, internal, generate
 1,  9,  1
*Elset, elset=_PICKEDSET2, internal, generate
 1,  8,  1
** Section: Section-1-_PICKEDSET2
*Shell Section, elset=_PICKEDSET2, material=MATERIAL-1
1., 5
*End Part
**  
**
** ASSEMBLY
**
*Assembly, name=Assembly
**  
*Instance, name=PART-1-1, part=PART-1
*End Instance
**  
*Nset, nset=_PICKEDSET7, internal, instance=PART-1-1
 1, 4, 5
*Nset, nset=_PICKEDSET8, internal, instance=PART-1-1
 1, 4, 5
*Elset, elset=_PICKEDSET8, internal, instance=PART-1-1
 2, 7
*Nset, nset=_PICKEDSET9, internal, instance=PART-1-1
 2, 3, 6
*Elset, elset=_PICKEDSET9, internal, instance=PART-1-1
 3, 6
*Nset, nset=_PickedSet9, internal, instance=PART-1-1
 3, 4, 8
*Nset, nset=_PickedSet10, internal, instance=PART-1-1
 2, 3
*Nset, nset=_PickedSet11, internal, instance=PART-1-1
 5, 9
*Nset, nset=_PickedSet12, internal, instance=PART-1-1
 6,
*End Assembly
** 
** MATERIALS
** 
*Material, name=MATERIAL-1
*Elastic
210000., 0.3
** ----------------------------------------------------------------
** 
** STEP: Step-1
** 
*Step, name=Step-1, nlgeom=NO
*Static
1., 1., 1e-05, 1.
** 
** BOUNDARY CONDITIONS
** 
** Name: BC-12 Type: Displacement/Rotation
*Boundary
_PickedSet10, 2, 2
_PickedSet10, 3, 3
_PickedSet10, 4, 4
_PickedSet10, 5, 5
_PickedSet10, 6, 6
** Name: BC-13 Type: Displacement/Rotation
*Boundary
_PickedSet11, 1, 1
_PickedSet11, 3, 3
_PickedSet11, 4, 4
_PickedSet11, 5, 5
_PickedSet11, 6, 6
** Name: BC-14 Type: Displacement/Rotation
*Boundary
_PickedSet12, 1, 1
_PickedSet12, 2, 2
_PickedSet12, 3, 3
_PickedSet12, 4, 4
_PickedSet12, 5, 5
_PickedSet12, 6, 6
** 
** LOADS
** 
** Name: CFORCE-1   Type: Concentrated force
*Cload
_PICKEDSET7, 2, 1000.
** Name: Load-2   Type: Concentrated force
*Cload
_PickedSet9, 1, 1000.
** 
** OUTPUT REQUESTS
** 
*Restart, write, frequency=0
** 
** FIELD OUTPUT: F-Output-1
** 
*Output, field, variable=PRESELECT
** 
** HISTORY OUTPUT: H-Output-1
** 
*Output, history, variable=PRESELECT
*End Step
