*Heading
** Job name: test_input_2 Model name: test_model_2
** Generated by: Abaqus/CAE Student Edition 6.13-2
*Preprint, echo=NO, model=NO, history=NO, contact=NO
**
** PARTS
**
*Part, name=Part-1
*Node
      1,          10.,          20.,           0.
      2,          10.,           0.,           0.
      3,          20.,           0.,           0.
      4,          20.,          20.,           0.
      5,           0.,          20.,           0.
      6,           0.,           0.,           0.
      7,          10.,          10.,           0.
      8,          20.,          10.,           0.
      9,           0.,          10.,           0.
*Element, type=S3
1, 1, 7, 8
2, 8, 4, 1
3, 7, 2, 3
4, 3, 8, 7
5, 2, 7, 9
6, 9, 6, 2
7, 7, 1, 5
8, 5, 9, 7
*Nset, nset=_PickedSet2, internal, generate
 1,  9,  1
*Elset, elset=_PickedSet2, internal, generate
 1,  8,  1
** Section: Section-1
*Shell Section, elset=_PickedSet2, material=Material-1
1., 5
*End Part
**  
**
** ASSEMBLY
**
*Assembly, name=Assembly
**  
*Instance, name=Part-1-1, part=Part-1
*End Instance
**  
*Nset, nset=_PickedSet7, internal, instance=Part-1-1
 1, 4, 5
*Nset, nset=_PickedSet8, internal, instance=Part-1-1
 1, 4, 5
*Elset, elset=_PickedSet8, internal, instance=Part-1-1
 2, 7
*Nset, nset=_PickedSet9, internal, instance=Part-1-1
 2, 3, 6
*Elset, elset=_PickedSet9, internal, instance=Part-1-1
 3, 6
*End Assembly
** 
** MATERIALS
** 
*Material, name=Material-1
*Elastic
210000., 0.3
** ----------------------------------------------------------------
** 
** STEP: Step-1
** 
*Step, name=Step-1, nlgeom=NO
*Static
1., 1., 1e-05, 1.
** 
** BOUNDARY CONDITIONS
** 
** Name: BC-1 Type: Displacement/Rotation
*Boundary
_PickedSet9, 1, 1
_PickedSet9, 2, 2
_PickedSet9, 3, 3
_PickedSet9, 4, 4
_PickedSet9, 5, 5
_PickedSet9, 6, 6
** Name: BC-2 Type: Displacement/Rotation
*Boundary
_PickedSet8, 1, 1
_PickedSet8, 3, 3
_PickedSet8, 4, 4
_PickedSet8, 5, 5
_PickedSet8, 6, 6
** 
** LOADS
** 
** Name: Load-1   Type: Concentrated force
*Cload
_PickedSet7, 2, 1000.
** 
** OUTPUT REQUESTS
** 
*Restart, write, frequency=0
** 
** FIELD OUTPUT: F-Output-1
** 
*Output, field, variable=PRESELECT
** 
** HISTORY OUTPUT: H-Output-1
** 
*Output, history, variable=PRESELECT
*End Step
