*Heading
** Job name: test_input_3 Model name: test_model_3
** Generated by: Abaqus/CAE Student Edition 6.13-2
*Preprint, echo=NO, model=NO, history=NO, contact=NO
**
** PARTS
**
*Part, name=Part-1
*Node
      1,           0.,          10.,           0.
      2,          10.,          10.,           0.
      3,          10.,          20.,           0.
      4,           0.,          20.,           0.
      5,          10.,           0.,           0.
      6,          20.,           0.,           0.
      7,          20.,          20.,           0.
      8,           0.,           0.,           0.
      9,           5.,          10.,           0.
     10,           5.,          20.,           0.
     11,          20.,   6.66666651,           0.
     12,          20.,    13.333333,           0.
     13,          10.,           5.,           0.
     14,           0.,           5.,           0.
     15,           5.,           0.,           0.
     16,           5.,           5.,           0.
*Element, type=S3
1,  1,  9, 10
2, 10,  4,  1
3,  9,  2,  3
4,  3, 10,  9
 5,  5,  6, 13
 6,  6, 11, 13
 7, 13, 11,  2
 8, 11, 12,  2
 9,  2, 12,  3
10, 12,  7,  3
11,  2,  9, 16
12, 16, 13,  2
13,  9,  1, 14
14, 14, 16,  9
15, 13, 16, 15
16, 15,  5, 13
17, 16, 14,  8
18,  8, 15, 16
*Nset, nset=_PickedSet2, internal, generate
  1,  16,   1
*Elset, elset=_PickedSet2, internal, generate
  1,  18,   1
** Section: Section-1
*Shell Section, elset=_PickedSet2, material=Material-1
1., 5
*End Part
**  
**
** ASSEMBLY
**
*Assembly, name=Assembly
**  
*Instance, name=Part-1-1, part=Part-1
*End Instance
**  
*Nset, nset=_PickedSet7, internal, instance=Part-1-1
 3, 4, 7
*Nset, nset=_PickedSet9, internal, instance=Part-1-1
  5,  6,  8, 15
*Elset, elset=_PickedSet9, internal, instance=Part-1-1
  5, 16, 18
*Nset, nset=_PickedSet10, internal, instance=Part-1-1
 7,
*End Assembly
** 
** MATERIALS
** 
*Material, name=Material-1
*Elastic
210000., 0.3
** ----------------------------------------------------------------
** 
** STEP: Step-1
** 
*Step, name=Step-1, nlgeom=NO
*Static
1., 1., 1e-05, 1.
** 
** BOUNDARY CONDITIONS
** 
** Name: BC-1 Type: Displacement/Rotation
*Boundary
_PickedSet9, 1, 1
_PickedSet9, 2, 2
_PickedSet9, 3, 3
_PickedSet9, 4, 4
_PickedSet9, 5, 5
_PickedSet9, 6, 6
** Name: BC-2 Type: Displacement/Rotation
*Boundary
_PickedSet10, 1, 1
_PickedSet10, 3, 3
_PickedSet10, 4, 4
_PickedSet10, 5, 5
_PickedSet10, 6, 6
** 
** LOADS
** 
** Name: Load-1   Type: Concentrated force
*Cload
_PickedSet7, 2, 100000.
** 
** OUTPUT REQUESTS
** 
*Restart, write, frequency=0
** 
** FIELD OUTPUT: F-Output-1
** 
*Output, field, variable=PRESELECT
** 
** HISTORY OUTPUT: H-Output-1
** 
*Output, history, variable=PRESELECT
*End Step
