*Heading
** Job name: Job-8 Model name: Model-8
** Generated by: Abaqus/CAE Student Edition 6.13-2
*Preprint, echo=NO, model=NO, history=NO, contact=NO
** ----------------------------------------------------------------
** 
** PART INSTANCE: Part-1-1
** 
*Node
      1,   13.0705538,   11.7709122,           0.
      2,   12.3540325,   11.1361294,           0.
      3,   12.0145826,   10.2410736,           0.
      4,   12.1299677,   9.29079056,           0.
      5,   12.6737547,   8.50297832,           0.
      6,    13.521369,   8.05811596,           0.
      7,   15.3262453,   8.50297832,           0.
      8,   15.8700323,   9.29079056,           0.
      9,   15.9854174,   10.2410736,           0.
     10,   15.6459675,   11.1361294,           0.
     11,   14.9294462,   11.7709122,           0.
     12,          14.,          12.,           0.
     13,   12.0729856,   33.5052261,           0.
     14,   11.2618113,   32.9158745,           0.
     15,   10.1957741,   31.2360687,           0.
     16,   10.0708513,   29.2504749,           0.
     17,   10.3806915,   28.2968826,           0.
     18,    11.648859,   26.7639313,           0.
     19,   13.4986668,   26.0315418,           0.
     20,   14.5013332,   26.0315418,           0.
** ... 764 like lines cut
*Element, type=S3
   1, 319,  58,  20
   2, 281, 143, 280
   3, 441, 349, 339
   4, 340, 283, 282
   5, 285, 147, 284
   6, 268, 130, 129
   7, 332, 323,  26
   8, 407, 266, 265
   9, 341, 287, 286
  10, 291, 153, 290
  11, 342, 254, 253
  12, 254, 113, 253
  13, 419, 191, 409
  14, 202, 102, 192
  15, 196, 193, 104
  16, 413, 194, 193
  17, 188, 184,   2
  18, 221, 218,  36
  19, 529, 218, 527
  20, 186,  11, 178
** ... 1376 like lines cut
*Nset, nset=Part-1-1__PickedSet8, generate
   1,  784,    1
*Elset, elset=Part-1-1__PickedSet8, generate
    1,  1396,     1
** Section: Section-1
*Shell Section, elset=Part-1-1__PickedSet8, material=Material-1
0.1, 5
*System
*Nset, nset=_PickedSet7
 43, 51
*Nset, nset=_PickedSet8
  49,  50, 110, 111, 112, 113, 114, 115, 116, 117, 118
*Elset, elset=_PickedSet8
 104, 114, 221, 331, 334, 336, 338, 340, 342, 540
*Nset, nset=_PickedSet9
 42, 43, 71, 72, 73, 74, 75, 76, 77, 78, 79, 80, 81, 82, 83, 84
 85, 86, 87, 88, 89, 90, 91, 92, 93, 94, 95, 96, 97, 98, 99
*Elset, elset=_PickedSet9
  44,  45,  75, 162, 163, 279, 282, 284, 285, 289, 291, 295, 297, 300, 302, 304
 306, 308, 310, 312, 314, 316, 318, 320, 322, 324, 326, 328, 330, 497
*Nset, nset=_PickedSet10
  43,  51, 158, 159, 160, 161, 162, 163, 164, 165, 166, 167, 168, 169, 170, 171
 172, 173, 174, 175, 176
*Elset, elset=_PickedSet10
 123, 162, 166, 179, 417, 420, 422, 424, 426, 428, 430, 432, 434, 436, 438, 440
 442, 445, 447, 503
** 
** MATERIALS
** 
*Material, name=Material-1
*Elastic
210000., 0.3
** ----------------------------------------------------------------
** 
** STEP: Step-1
** 
*Step, name=Step-1, nlgeom=NO
*Static
0.01, 1., 1e-05, 0.1
** 
** BOUNDARY CONDITIONS
** 
** Name: BC-1 Type: Displacement/Rotation
*Boundary
_PickedSet8, 2, 2
_PickedSet8, 3, 3
_PickedSet8, 4, 4
_PickedSet8, 5, 5
_PickedSet8, 6, 6
** Name: BC-2 Type: Displacement/Rotation
*Boundary
_PickedSet9, 1, 1
_PickedSet9, 3, 3
_PickedSet9, 4, 4
_PickedSet9, 5, 5
_PickedSet9, 6, 6
** Name: BC-3 Type: Displacement/Rotation
*Boundary
_PickedSet10, 2, 2, 2.
** 
** OUTPUT REQUESTS
** 
*Restart, write, frequency=0
** 
** FIELD OUTPUT: F-Output-1
** 
*Output, field, variable=PRESELECT
** 
** HISTORY OUTPUT: H-Output-1
** 
*Output, history, variable=PRESELECT
*End Step
