*Heading
** Job name: Job-4 Model name: Model-4
** Generated by: Abaqus/CAE Student Edition 6.13-2
*Preprint, echo=NO, model=NO, history=NO, contact=NO
** ----------------------------------------------------------------
** 
** PART INSTANCE: Part-1-1
** 
*Node
      1,           0.,          10.,           0.
      2,           0.,          40.,           0.
      3,    9.5105648,   3.09016991,           0.
      4,   8.09016991,   5.87785244,           0.
      5,   5.87785244,   8.09016991,           0.
      6,   3.09016991,    9.5105648,           0.
      7,          10.,           0.,           0.
      8,          20.,           0.,           0.
      9,          20.,          40.,           0.
     10,           0.,          13.,           0.
     11,           0.,          16.,           0.
     12,           0.,          19.,           0.
     13,           0.,          22.,           0.
     14,           0.,          25.,           0.
     15,           0.,          28.,           0.
     16,           0.,          31.,           0.
     17,           0.,          34.,           0.
     18,           0.,          37.,           0.
     19,    16.666666,           0.,           0.
     20,    13.333333,           0.,           0.
** ... 88 like lines cut
*Element, type=S3
  1,  39,   6,   5
  2,  40,  18,  17
  3,  58,  26,  57
  4,  60,  28,  59
  5,  67,  52,  63
  6,  63,  19,  32
  7,  44,   7,  20
  8,  45,   1,   6
  9, 103,  45,  39
 10,  97,  89,  88
 11,  47,  12,  41
 12,  48,  13,  47
 13,  49,  14,  48
 14,  50,  15,  49
 15,  84,  54,  79
 16,  68,  64,  34
 17,  32,  19,   8
 18,  52,  44,  20
 19,  38,  21,   9
 20,  69,  21,  38
** ... 156 like lines cut
*Nset, nset=Part-1-1__PickedSet8, generate
   1,  108,    1
*Elset, elset=Part-1-1__PickedSet8, generate
   1,  176,    1
** Section: Section-1
*Shell Section, elset=Part-1-1__PickedSet8, material=Material-1
0.1, 5
*System
*Nset, nset=_PickedSet7
 2, 9
*Nset, nset=_PickedSet8
  7,  8, 19, 20
*Elset, elset=_PickedSet8
  7, 17, 48
*Nset, nset=_PickedSet9
  1,  2, 10, 11, 12, 13, 14, 15, 16, 17, 18
*Elset, elset=_PickedSet9
  2, 31, 39, 41, 42, 49, 54, 56, 58, 60
*Nset, nset=_PickedSet10
  2,  9, 33, 34, 35, 36, 37, 38
*Elset, elset=_PickedSet10
 19, 31, 34, 36, 90, 92, 95
** 
** MATERIALS
** 
*Material, name=Material-1
*Elastic
210000., 0.3
** ----------------------------------------------------------------
** 
** STEP: Step-1
** 
*Step, name=Step-1, nlgeom=NO
*Static
1., 1., 1e-05, 1.
** 
** BOUNDARY CONDITIONS
** 
** Name: BC-1 Type: Displacement/Rotation
*Boundary
_PickedSet8, 2, 2
_PickedSet8, 3, 3
_PickedSet8, 4, 4
_PickedSet8, 5, 5
_PickedSet8, 6, 6
** Name: BC-2 Type: Displacement/Rotation
*Boundary
_PickedSet9, 1, 1
_PickedSet9, 3, 3
_PickedSet9, 4, 4
_PickedSet9, 5, 5
_PickedSet9, 6, 6
** Name: BC-3 Type: Displacement/Rotation
*Boundary
_PickedSet10, 2, 2, 2.
** 
** OUTPUT REQUESTS
** 
*Restart, write, frequency=0
** 
** FIELD OUTPUT: F-Output-1
** 
*Output, field, variable=PRESELECT
** 
** HISTORY OUTPUT: H-Output-1
** 
*Output, history, variable=PRESELECT
*End Step
