**
** Plate with hole, symmetry boundary conditions applied, displacement load, refined mesh
**
*Node
      1,           0.,          10.,           0.
      2,           0.,          40.,           0.
      3,   9.56940365,   2.90284681,           0.
      4,   8.81921291,   4.71396732,           0.
      5,   7.07106781,   7.07106781,           0.
      6,   4.71396732,   8.81921291,           0.
      7,   2.90284681,   9.56940365,           0.
      8,          10.,           0.,           0.
      9,          20.,           0.,           0.
     10,          20.,          40.,           0.
     11,           0.,          11.,           0.
     12,           0.,    12.078722,           0.
     13,           0.,   13.2423649,           0.
     14,           0.,    14.497612,           0.
     15,           0.,    15.851675,           0.
     16,           0.,   17.3123322,           0.
     17,           0.,   18.8879776,           0.
     18,           0.,   20.5876617,           0.
     19,           0.,   22.4211483,           0.
     20,           0.,   24.3989716,           0.
** ... 308 like lines cut
*Element, type=S3
  1,  80,  79,  33
  2, 302, 298,  25
  3, 129,  15,  14
  4, 119,  76, 118
  5, 102, 100,  54
  6,  77,  29,  72
  7, 127, 126,  92
  8, 103,  27,  78
  9,  11,   1,  35
 10,  81,  11,  35
 11,  84,  81,  34
 12, 178, 155, 122
 13,  79,   7,  33
 14, 155, 125,  13
 15,  97,  16,  95
 16,  99,  17,  97
 17, 101,  18,  99
 18, 265,  19, 101
 19, 275, 265, 262
 20, 272, 253, 261
** ... 563 like lines cut
*Nset, nset=Part-1-1__PickedSet8, generate
   1,  328,    1
*Elset, elset=Part-1-1__PickedSet8, generate
   1,  583,    1
*Shell Section, elset=Part-1-1__PickedSet8, material=Material-1
0.1, 5
*System
*Nset, nset=_PickedSet7
  2, 10
*Nset, nset=_PickedSet8
  8,  9, 36, 37, 38, 39, 40, 41, 42, 43, 44
*Elset, elset=_PickedSet8
  24,  34,  38,  42,  96,  99, 101, 103, 135, 136
*Nset, nset=_PickedSet9
  1,  2, 11, 12, 13, 14, 15, 16, 17, 18, 19, 20, 21, 22, 23, 24
 25,
*Elset, elset=_PickedSet9
   3,   9,  64,  65, 117, 121, 125, 129, 170, 177, 236, 456, 476, 504, 511, 519
*Nset, nset=_PickedSet10
  2, 10, 66, 67, 68, 69, 70, 71
*Elset, elset=_PickedSet10
  43,  64,  67, 521, 522, 525, 527
** 
**
** 
*Material, name=Material-1
*Elastic
210000., 0.3
** 
**
** 
*Boundary
_PickedSet8, 2, 2
_PickedSet8, 3, 3
_PickedSet8, 4, 4
_PickedSet8, 5, 5
_PickedSet8, 6, 6
*Boundary
_PickedSet9, 1, 1
_PickedSet9, 3, 3
_PickedSet9, 4, 4
_PickedSet9, 5, 5
_PickedSet9, 6, 6
*Boundary
_PickedSet10, 2, 2, 2.
** 
**
** 
